phenylpyridine_w_stereocenter
  PyMOL2.4          3D                             0

 24 25  0  0  1  0  0  0  0  0999 V2000
    1.3380    0.0944   -3.4821 C   0  0  0  0  0  0  0  0  0  0  0  0
    1.3145    0.0454   -2.1314 N   0  0  0  0  0  0  0  0  0  0  0  0
    1.9288   -1.0138   -1.5584 C   0  0  0  0  0  0  0  0  0  0  0  0
    2.5620   -2.0210   -2.2687 C   0  0  0  0  0  0  0  0  0  0  0  0
    2.5652   -1.9355   -3.6564 C   0  0  0  0  0  0  0  0  0  0  0  0
    1.9436   -0.8607   -4.2826 C   0  0  0  0  0  0  0  0  0  0  0  0
    1.8851   -1.0363   -0.1124 C   0  0  0  0  0  0  0  0  0  0  0  0
    2.9210   -1.6309    0.6081 C   0  0  0  0  0  0  0  0  0  0  0  0
    2.8783   -1.6520    2.0022 C   0  0  0  0  0  0  0  0  0  0  0  0
    1.7997   -1.0786    2.6757 C   0  0  0  0  0  0  0  0  0  0  0  0
    0.7638   -0.4841    1.9551 C   0  0  0  0  0  0  0  0  0  0  0  0
    0.8066   -0.4630    0.5610 C   0  0  0  0  0  0  0  0  0  0  0  0
    1.7540   -1.1009    4.1662 C   0  0  2  0  0  0  0  0  0  0  0  0
    1.2123   -0.2290    4.5572 H   0  0  0  0  0  0  0  0  0  0  0  0
    2.9876   -1.0843    4.7561 F   0  0  0  0  0  0  0  0  0  0  0  0
    0.9035   -2.5596    4.7392 Cl  0  0  0  0  0  0  0  0  0  0  0  0
    0.8393    0.9524   -3.9208 H   0  0  0  0  0  0  0  0  0  0  0  0
    3.0436   -2.8571   -1.7718 H   0  0  0  0  0  0  0  0  0  0  0  0
    3.0521   -2.7043   -4.2487 H   0  0  0  0  0  0  0  0  0  0  0  0
    1.9358   -0.7719   -5.3628 H   0  0  0  0  0  0  0  0  0  0  0  0
    3.7683   -2.0820    0.0974 H   0  0  0  0  0  0  0  0  0  0  0  0
    3.6899   -2.1176    2.5551 H   0  0  0  0  0  0  0  0  0  0  0  0
   -0.0802   -0.0342    2.4713 H   0  0  0  0  0  0  0  0  0  0  0  0
   -0.0090    0.0034    0.0132 H   0  0  0  0  0  0  0  0  0  0  0  0
  1  2  2  0  0  0  0
  1  6  1  0  0  0  0
  1 17  1  0  0  0  0
  2  3  1  0  0  0  0
  3  4  2  0  0  0  0
  3  7  1  0  0  0  0
  4  5  1  0  0  0  0
  4 18  1  0  0  0  0
  5  6  2  0  0  0  0
  5 19  1  0  0  0  0
  6 20  1  0  0  0  0
  7  8  2  0  0  0  0
  7 12  1  0  0  0  0
  8  9  1  0  0  0  0
  8 21  1  0  0  0  0
  9 10  2  0  0  0  0
  9 22  1  0  0  0  0
 10 11  1  0  0  0  0
 10 13  1  0  0  0  0
 11 12  2  0  0  0  0
 11 23  1  0  0  0  0
 12 24  1  0  0  0  0
 13 14  1  0  0  0  0
 13 15  1  0  0  0  0
 13 16  1  0  0  0  0
M  END
$$$$
